<?xml version="1.0" encoding="UTF-8"?>

<!-- generated on 2024-08-04 02:01:29 by Eclipse SUMO duarouter Version 1.20.0
<configuration xmlns:xsi="http://www.w3.org/2001/XMLSchema-instance" xsi:noNamespaceSchemaLocation="http://sumo.dlr.de/xsd/duarouterConfiguration.xsd">

    <input>
        <net-file value="ql2.complicate.net.xml"/>
        <additional-files value="taz_complicate.add.xml"/>
        <route-files value="complicate.rou.xml"/>
        <weight-files value="weights_complicate.xml"/>
    </input>

    <output>
        <output-file value="complicate.static.rou.xml"/>
    </output>

</configuration>
-->

<routes xmlns:xsi="http://www.w3.org/2001/XMLSchema-instance" xsi:noNamespaceSchemaLocation="http://sumo.dlr.de/xsd/routes_file.xsd">
    <vehicle id="F1.0" depart="0.00" departLane="random" fromTaz="taz_0" toTaz="taz_1">
        <route edges="-E22 E6 E23"/>
    </vehicle>
    <vehicle id="F10.0" depart="0.00" departLane="random" fromTaz="taz_0" toTaz="taz_10">
        <route edges="-E22 E5 E10 E30"/>
    </vehicle>
    <vehicle id="F100.0" depart="0.00" departLane="random" fromTaz="taz_7" toTaz="taz_9">
        <route edges="-E28 -E13 -E12 E31"/>
    </vehicle>
    <vehicle id="F101.0" depart="0.00" departLane="random" fromTaz="taz_7" toTaz="taz_10">
        <route edges="-E28 -E13 -E12 -E11 E30"/>
    </vehicle>
    <vehicle id="F102.0" depart="0.00" departLane="random" fromTaz="taz_7" toTaz="taz_11">
        <route edges="-E28 -E13 -E12 -E11 E29"/>
    </vehicle>
    <vehicle id="F103.0" depart="0.00" departLane="random" fromTaz="taz_7" toTaz="taz_12">
        <route edges="-E28 -E14 -E3 -E2 -E1 -E0"/>
    </vehicle>
    <vehicle id="F104.0" depart="0.00" departLane="random" fromTaz="taz_7" toTaz="taz_13">
        <route edges="-E28 -E14 -E9 -E8 -E7 -E6 E21"/>
    </vehicle>
    <vehicle id="F105.0" depart="0.00" departLane="random" fromTaz="taz_8" toTaz="taz_0">
        <route edges="-E32 -E18 -E17 -E7 -E6 E22"/>
    </vehicle>
    <vehicle id="F106.0" depart="0.00" departLane="random" fromTaz="taz_8" toTaz="taz_1">
        <route edges="-E32 -E18 -E17 -E7 E23"/>
    </vehicle>
    <vehicle id="F107.0" depart="0.00" departLane="random" fromTaz="taz_8" toTaz="taz_2">
        <route edges="-E32 -E18 -E17 E24"/>
    </vehicle>
    <vehicle id="F108.0" depart="0.00" departLane="random" fromTaz="taz_8" toTaz="taz_3">
        <route edges="-E32 -E18 -E17 E8 E25"/>
    </vehicle>
    <vehicle id="F109.0" depart="0.00" departLane="random" fromTaz="taz_8" toTaz="taz_4">
        <route edges="-E32 -E18 -E17 E8 E26"/>
    </vehicle>
    <vehicle id="F11.0" depart="0.00" departLane="random" fromTaz="taz_0" toTaz="taz_11">
        <route edges="-E22 E5 E10 E29"/>
    </vehicle>
    <vehicle id="F110.0" depart="0.00" departLane="random" fromTaz="taz_8" toTaz="taz_5">
        <route edges="-E32 -E18 E3 E4"/>
    </vehicle>
    <vehicle id="F111.0" depart="0.00" departLane="random" fromTaz="taz_8" toTaz="taz_6">
        <route edges="-E32 E13 E27"/>
    </vehicle>
    <vehicle id="F112.0" depart="0.00" departLane="random" fromTaz="taz_8" toTaz="taz_7">
        <route edges="-E32 E13 E28"/>
    </vehicle>
    <vehicle id="F113.0" depart="0.00" departLane="random" fromTaz="taz_8" toTaz="taz_9">
        <route edges="-E32 -E12 E31"/>
    </vehicle>
    <vehicle id="F114.0" depart="0.00" departLane="random" fromTaz="taz_8" toTaz="taz_10">
        <route edges="-E32 -E12 -E11 E30"/>
    </vehicle>
    <vehicle id="F115.0" depart="0.00" departLane="random" fromTaz="taz_8" toTaz="taz_11">
        <route edges="-E32 -E12 -E11 E29"/>
    </vehicle>
    <vehicle id="F116.0" depart="0.00" departLane="random" fromTaz="taz_8" toTaz="taz_12">
        <route edges="-E32 -E18 -E2 -E1 -E0"/>
    </vehicle>
    <vehicle id="F117.0" depart="0.00" departLane="random" fromTaz="taz_8" toTaz="taz_13">
        <route edges="-E32 -E18 -E17 -E7 -E6 E21"/>
    </vehicle>
    <vehicle id="F118.0" depart="0.00" departLane="random" fromTaz="taz_9" toTaz="taz_0">
        <route edges="-E31 -E16 -E15 -E6 E22"/>
    </vehicle>
    <vehicle id="F119.0" depart="0.00" departLane="random" fromTaz="taz_9" toTaz="taz_1">
        <route edges="-E31 -E16 -E15 E23"/>
    </vehicle>
    <vehicle id="F12.0" depart="0.00" departLane="random" fromTaz="taz_0" toTaz="taz_12">
        <route edges="-E22 E5 -E0"/>
    </vehicle>
    <vehicle id="F120.0" depart="0.00" departLane="random" fromTaz="taz_9" toTaz="taz_2">
        <route edges="-E31 -E16 -E15 E7 E24"/>
    </vehicle>
    <vehicle id="F121.0" depart="0.00" departLane="random" fromTaz="taz_9" toTaz="taz_3">
        <route edges="-E31 -E16 E2 E3 -E9 E25"/>
    </vehicle>
    <vehicle id="F122.0" depart="0.00" departLane="random" fromTaz="taz_9" toTaz="taz_4">
        <route edges="-E31 -E16 -E15 E7 E8 E26"/>
    </vehicle>
    <vehicle id="F123.0" depart="0.00" departLane="random" fromTaz="taz_9" toTaz="taz_5">
        <route edges="-E31 -E16 E2 E3 E4"/>
    </vehicle>
    <vehicle id="F124.0" depart="0.00" departLane="random" fromTaz="taz_9" toTaz="taz_6">
        <route edges="-E31 E12 E13 E27"/>
    </vehicle>
    <vehicle id="F125.0" depart="0.00" departLane="random" fromTaz="taz_9" toTaz="taz_7">
        <route edges="-E31 E12 E13 E28"/>
    </vehicle>
    <vehicle id="F126.0" depart="0.00" departLane="random" fromTaz="taz_9" toTaz="taz_8">
        <route edges="-E31 E12 E32"/>
    </vehicle>
    <vehicle id="F127.0" depart="0.00" departLane="random" fromTaz="taz_9" toTaz="taz_10">
        <route edges="-E31 -E11 E30"/>
    </vehicle>
    <vehicle id="F128.0" depart="0.00" departLane="random" fromTaz="taz_9" toTaz="taz_11">
        <route edges="-E31 -E11 E29"/>
    </vehicle>
    <vehicle id="F129.0" depart="0.00" departLane="random" fromTaz="taz_9" toTaz="taz_12">
        <route edges="-E31 -E16 -E1 -E0"/>
    </vehicle>
    <vehicle id="F13.0" depart="0.00" departLane="random" fromTaz="taz_0" toTaz="taz_13">
        <route edges="-E22 E21"/>
    </vehicle>
    <vehicle id="F130.0" depart="0.00" departLane="random" fromTaz="taz_9" toTaz="taz_13">
        <route edges="-E31 -E16 -E15 -E6 E21"/>
    </vehicle>
    <vehicle id="F131.0" depart="0.00" departLane="random" fromTaz="taz_10" toTaz="taz_0">
        <route edges="-E30 -E10 -E5 E22"/>
    </vehicle>
    <vehicle id="F132.0" depart="0.00" departLane="random" fromTaz="taz_10" toTaz="taz_1">
        <route edges="-E30 -E10 -E5 E6 E23"/>
    </vehicle>
    <vehicle id="F133.0" depart="0.00" departLane="random" fromTaz="taz_10" toTaz="taz_2">
        <route edges="-E30 -E10 E1 E2 -E17 E24"/>
    </vehicle>
    <vehicle id="F134.0" depart="0.00" departLane="random" fromTaz="taz_10" toTaz="taz_3">
        <route edges="-E30 -E10 -E5 E6 E7 E8 E25"/>
    </vehicle>
    <vehicle id="F135.0" depart="0.00" departLane="random" fromTaz="taz_10" toTaz="taz_4">
        <route edges="-E30 -E10 -E5 E6 E7 E8 E26"/>
    </vehicle>
    <vehicle id="F136.0" depart="0.00" departLane="random" fromTaz="taz_10" toTaz="taz_5">
        <route edges="-E30 -E10 E1 E2 E3 E4"/>
    </vehicle>
    <vehicle id="F137.0" depart="0.00" departLane="random" fromTaz="taz_10" toTaz="taz_6">
        <route edges="-E30 E11 E12 E13 E27"/>
    </vehicle>
    <vehicle id="F138.0" depart="0.00" departLane="random" fromTaz="taz_10" toTaz="taz_7">
        <route edges="-E30 E11 E12 E13 E28"/>
    </vehicle>
    <vehicle id="F139.0" depart="0.00" departLane="random" fromTaz="taz_10" toTaz="taz_8">
        <route edges="-E30 E11 E12 E32"/>
    </vehicle>
    <vehicle id="F14.0" depart="0.00" departLane="random" fromTaz="taz_1" toTaz="taz_0">
        <route edges="-E23 -E6 E22"/>
    </vehicle>
    <vehicle id="F140.0" depart="0.00" departLane="random" fromTaz="taz_10" toTaz="taz_9">
        <route edges="-E30 E11 E31"/>
    </vehicle>
    <vehicle id="F141.0" depart="0.00" departLane="random" fromTaz="taz_10" toTaz="taz_11">
        <route edges="-E30 E29"/>
    </vehicle>
    <vehicle id="F142.0" depart="0.00" departLane="random" fromTaz="taz_10" toTaz="taz_12">
        <route edges="-E30 -E10 -E0"/>
    </vehicle>
    <vehicle id="F143.0" depart="0.00" departLane="random" fromTaz="taz_10" toTaz="taz_13">
        <route edges="-E30 -E10 -E5 E21"/>
    </vehicle>
    <vehicle id="F144.0" depart="0.00" departLane="random" fromTaz="taz_11" toTaz="taz_0">
        <route edges="-E29 -E10 -E5 E22"/>
    </vehicle>
    <vehicle id="F145.0" depart="0.00" departLane="random" fromTaz="taz_11" toTaz="taz_1">
        <route edges="-E29 E11 -E16 -E15 E23"/>
    </vehicle>
    <vehicle id="F146.0" depart="0.00" departLane="random" fromTaz="taz_11" toTaz="taz_2">
        <route edges="-E29 E11 E12 -E18 -E17 E24"/>
    </vehicle>
    <vehicle id="F147.0" depart="0.00" departLane="random" fromTaz="taz_11" toTaz="taz_3">
        <route edges="-E29 E11 E12 E13 -E14 -E9 E25"/>
    </vehicle>
    <vehicle id="F148.0" depart="0.00" departLane="random" fromTaz="taz_11" toTaz="taz_4">
        <route edges="-E29 E11 E12 -E18 -E17 E8 E26"/>
    </vehicle>
    <vehicle id="F149.0" depart="0.00" departLane="random" fromTaz="taz_11" toTaz="taz_5">
        <route edges="-E29 E11 E12 -E18 E3 E4"/>
    </vehicle>
    <vehicle id="F15.0" depart="0.00" departLane="random" fromTaz="taz_1" toTaz="taz_2">
        <route edges="-E23 E7 E24"/>
    </vehicle>
    <vehicle id="F150.0" depart="0.00" departLane="random" fromTaz="taz_11" toTaz="taz_6">
        <route edges="-E29 E11 E12 E13 E27"/>
    </vehicle>
    <vehicle id="F151.0" depart="0.00" departLane="random" fromTaz="taz_11" toTaz="taz_7">
        <route edges="-E29 E11 E12 E13 E28"/>
    </vehicle>
    <vehicle id="F152.0" depart="0.00" departLane="random" fromTaz="taz_11" toTaz="taz_8">
        <route edges="-E29 E11 E12 E32"/>
    </vehicle>
    <vehicle id="F153.0" depart="0.00" departLane="random" fromTaz="taz_11" toTaz="taz_9">
        <route edges="-E29 E11 E31"/>
    </vehicle>
    <vehicle id="F154.0" depart="0.00" departLane="random" fromTaz="taz_11" toTaz="taz_10">
        <route edges="-E29 E30"/>
    </vehicle>
    <vehicle id="F155.0" depart="0.00" departLane="random" fromTaz="taz_11" toTaz="taz_12">
        <route edges="-E29 -E10 -E0"/>
    </vehicle>
    <vehicle id="F156.0" depart="0.00" departLane="random" fromTaz="taz_11" toTaz="taz_13">
        <route edges="-E29 -E10 -E5 E21"/>
    </vehicle>
    <vehicle id="F157.0" depart="0.00" departLane="random" fromTaz="taz_12" toTaz="taz_0">
        <route edges="E0 -E5 E22"/>
    </vehicle>
    <vehicle id="F158.0" depart="0.00" departLane="random" fromTaz="taz_12" toTaz="taz_1">
        <route edges="E0 E1 -E15 E23"/>
    </vehicle>
    <vehicle id="F159.0" depart="0.00" departLane="random" fromTaz="taz_12" toTaz="taz_2">
        <route edges="E0 E1 E2 -E17 E24"/>
    </vehicle>
    <vehicle id="F16.0" depart="0.00" departLane="random" fromTaz="taz_1" toTaz="taz_3">
        <route edges="-E23 E7 E8 E25"/>
    </vehicle>
    <vehicle id="F160.0" depart="0.00" departLane="random" fromTaz="taz_12" toTaz="taz_3">
        <route edges="E0 E1 E2 E3 -E9 E25"/>
    </vehicle>
    <vehicle id="F161.0" depart="0.00" departLane="random" fromTaz="taz_12" toTaz="taz_4">
        <route edges="E0 E1 -E15 E7 E8 E26"/>
    </vehicle>
    <vehicle id="F162.0" depart="0.00" departLane="random" fromTaz="taz_12" toTaz="taz_5">
        <route edges="E0 E1 E2 E3 E4"/>
    </vehicle>
    <vehicle id="F163.0" depart="0.00" departLane="random" fromTaz="taz_12" toTaz="taz_6">
        <route edges="E0 E1 E16 E12 E13 E27"/>
    </vehicle>
    <vehicle id="F164.0" depart="0.00" departLane="random" fromTaz="taz_12" toTaz="taz_7">
        <route edges="E0 E1 E2 E3 E14 E28"/>
    </vehicle>
    <vehicle id="F165.0" depart="0.00" departLane="random" fromTaz="taz_12" toTaz="taz_8">
        <route edges="E0 E1 E2 E18 E32"/>
    </vehicle>
    <vehicle id="F166.0" depart="0.00" departLane="random" fromTaz="taz_12" toTaz="taz_9">
        <route edges="E0 E1 E16 E31"/>
    </vehicle>
    <vehicle id="F167.0" depart="0.00" departLane="random" fromTaz="taz_12" toTaz="taz_10">
        <route edges="E0 E10 E30"/>
    </vehicle>
    <vehicle id="F168.0" depart="0.00" departLane="random" fromTaz="taz_12" toTaz="taz_11">
        <route edges="E0 E10 E29"/>
    </vehicle>
    <vehicle id="F169.0" depart="0.00" departLane="random" fromTaz="taz_12" toTaz="taz_13">
        <route edges="E0 -E5 E21"/>
    </vehicle>
    <vehicle id="F17.0" depart="0.00" departLane="random" fromTaz="taz_1" toTaz="taz_4">
        <route edges="-E23 E7 E8 E26"/>
    </vehicle>
    <vehicle id="F170.0" depart="0.00" departLane="random" fromTaz="taz_13" toTaz="taz_0">
        <route edges="-E21 E22"/>
    </vehicle>
    <vehicle id="F171.0" depart="0.00" departLane="random" fromTaz="taz_13" toTaz="taz_1">
        <route edges="-E21 E6 E23"/>
    </vehicle>
    <vehicle id="F172.0" depart="0.00" departLane="random" fromTaz="taz_13" toTaz="taz_2">
        <route edges="-E21 E6 E7 E24"/>
    </vehicle>
    <vehicle id="F173.0" depart="0.00" departLane="random" fromTaz="taz_13" toTaz="taz_3">
        <route edges="-E21 E6 E7 E8 E25"/>
    </vehicle>
    <vehicle id="F174.0" depart="0.00" departLane="random" fromTaz="taz_13" toTaz="taz_4">
        <route edges="-E21 E6 E7 E8 E26"/>
    </vehicle>
    <vehicle id="F175.0" depart="0.00" departLane="random" fromTaz="taz_13" toTaz="taz_5">
        <route edges="-E21 E5 E1 E2 E3 E4"/>
    </vehicle>
    <vehicle id="F176.0" depart="0.00" departLane="random" fromTaz="taz_13" toTaz="taz_6">
        <route edges="-E21 E5 E10 E11 E12 E13 E27"/>
    </vehicle>
    <vehicle id="F177.0" depart="0.00" departLane="random" fromTaz="taz_13" toTaz="taz_7">
        <route edges="-E21 E6 E7 E8 E9 E14 E28"/>
    </vehicle>
    <vehicle id="F178.0" depart="0.00" departLane="random" fromTaz="taz_13" toTaz="taz_8">
        <route edges="-E21 E6 E7 E17 E18 E32"/>
    </vehicle>
    <vehicle id="F179.0" depart="0.00" departLane="random" fromTaz="taz_13" toTaz="taz_9">
        <route edges="-E21 E6 E15 E16 E31"/>
    </vehicle>
    <vehicle id="F18.0" depart="0.00" departLane="random" fromTaz="taz_1" toTaz="taz_5">
        <route edges="-E23 E15 E2 E3 E4"/>
    </vehicle>
    <vehicle id="F180.0" depart="0.00" departLane="random" fromTaz="taz_13" toTaz="taz_10">
        <route edges="-E21 E5 E10 E30"/>
    </vehicle>
    <vehicle id="F181.0" depart="0.00" departLane="random" fromTaz="taz_13" toTaz="taz_11">
        <route edges="-E21 E5 E10 E29"/>
    </vehicle>
    <vehicle id="F182.0" depart="0.00" departLane="random" fromTaz="taz_13" toTaz="taz_12">
        <route edges="-E21 E5 -E0"/>
    </vehicle>
    <vehicle id="F19.0" depart="0.00" departLane="random" fromTaz="taz_1" toTaz="taz_6">
        <route edges="-E23 E15 E16 E12 E13 E27"/>
    </vehicle>
    <vehicle id="F2.0" depart="0.00" departLane="random" fromTaz="taz_0" toTaz="taz_2">
        <route edges="-E22 E6 E7 E24"/>
    </vehicle>
    <vehicle id="F20.0" depart="0.00" departLane="random" fromTaz="taz_1" toTaz="taz_7">
        <route edges="-E23 E15 E16 E12 E13 E28"/>
    </vehicle>
    <vehicle id="F21.0" depart="0.00" departLane="random" fromTaz="taz_1" toTaz="taz_8">
        <route edges="-E23 E15 E16 E12 E32"/>
    </vehicle>
    <vehicle id="F22.0" depart="0.00" departLane="random" fromTaz="taz_1" toTaz="taz_9">
        <route edges="-E23 E15 E16 E31"/>
    </vehicle>
    <vehicle id="F23.0" depart="0.00" departLane="random" fromTaz="taz_1" toTaz="taz_10">
        <route edges="-E23 E15 E16 -E11 E30"/>
    </vehicle>
    <vehicle id="F24.0" depart="0.00" departLane="random" fromTaz="taz_1" toTaz="taz_11">
        <route edges="-E23 E15 E16 -E11 E29"/>
    </vehicle>
    <vehicle id="F25.0" depart="0.00" departLane="random" fromTaz="taz_1" toTaz="taz_12">
        <route edges="-E23 E15 -E1 -E0"/>
    </vehicle>
    <vehicle id="F26.0" depart="0.00" departLane="random" fromTaz="taz_1" toTaz="taz_13">
        <route edges="-E23 -E6 E21"/>
    </vehicle>
    <vehicle id="F27.0" depart="0.00" departLane="random" fromTaz="taz_2" toTaz="taz_0">
        <route edges="-E24 -E7 -E6 E22"/>
    </vehicle>
    <vehicle id="F28.0" depart="0.00" departLane="random" fromTaz="taz_2" toTaz="taz_1">
        <route edges="-E24 -E7 E23"/>
    </vehicle>
    <vehicle id="F29.0" depart="0.00" departLane="random" fromTaz="taz_2" toTaz="taz_3">
        <route edges="-E24 E8 E25"/>
    </vehicle>
    <vehicle id="F3.0" depart="0.00" departLane="random" fromTaz="taz_0" toTaz="taz_3">
        <route edges="-E22 E6 E7 E8 E25"/>
    </vehicle>
    <vehicle id="F30.0" depart="0.00" departLane="random" fromTaz="taz_2" toTaz="taz_4">
        <route edges="-E24 E8 E26"/>
    </vehicle>
    <vehicle id="F31.0" depart="0.00" departLane="random" fromTaz="taz_2" toTaz="taz_5">
        <route edges="-E24 E17 E3 E4"/>
    </vehicle>
    <vehicle id="F32.0" depart="0.00" departLane="random" fromTaz="taz_2" toTaz="taz_6">
        <route edges="-E24 E17 E18 E13 E27"/>
    </vehicle>
    <vehicle id="F33.0" depart="0.00" departLane="random" fromTaz="taz_2" toTaz="taz_7">
        <route edges="-E24 E17 E18 E13 E28"/>
    </vehicle>
    <vehicle id="F34.0" depart="0.00" departLane="random" fromTaz="taz_2" toTaz="taz_8">
        <route edges="-E24 E17 E18 E32"/>
    </vehicle>
    <vehicle id="F35.0" depart="0.00" departLane="random" fromTaz="taz_2" toTaz="taz_9">
        <route edges="-E24 E17 E18 -E12 E31"/>
    </vehicle>
    <vehicle id="F36.0" depart="0.00" departLane="random" fromTaz="taz_2" toTaz="taz_10">
        <route edges="-E24 E17 -E2 -E1 E10 E30"/>
    </vehicle>
    <vehicle id="F37.0" depart="0.00" departLane="random" fromTaz="taz_2" toTaz="taz_11">
        <route edges="-E24 E17 E18 -E12 -E11 E29"/>
    </vehicle>
    <vehicle id="F38.0" depart="0.00" departLane="random" fromTaz="taz_2" toTaz="taz_12">
        <route edges="-E24 E17 -E2 -E1 -E0"/>
    </vehicle>
    <vehicle id="F39.0" depart="0.00" departLane="random" fromTaz="taz_2" toTaz="taz_13">
        <route edges="-E24 -E7 -E6 E21"/>
    </vehicle>
    <vehicle id="F4.0" depart="0.00" departLane="random" fromTaz="taz_0" toTaz="taz_4">
        <route edges="-E22 E6 E7 E8 E26"/>
    </vehicle>
    <vehicle id="F40.0" depart="0.00" departLane="random" fromTaz="taz_3" toTaz="taz_0">
        <route edges="-E25 -E8 -E7 -E6 E22"/>
    </vehicle>
    <vehicle id="F41.0" depart="0.00" departLane="random" fromTaz="taz_3" toTaz="taz_1">
        <route edges="-E25 -E8 -E7 E23"/>
    </vehicle>
    <vehicle id="F42.0" depart="0.00" departLane="random" fromTaz="taz_3" toTaz="taz_2">
        <route edges="-E25 -E8 E24"/>
    </vehicle>
    <vehicle id="F43.0" depart="0.00" departLane="random" fromTaz="taz_3" toTaz="taz_4">
        <route edges="-E25 E26"/>
    </vehicle>
    <vehicle id="F44.0" depart="0.00" departLane="random" fromTaz="taz_3" toTaz="taz_5">
        <route edges="-E25 E9 E4"/>
    </vehicle>
    <vehicle id="F45.0" depart="0.00" departLane="random" fromTaz="taz_3" toTaz="taz_6">
        <route edges="-E25 E9 E14 E27"/>
    </vehicle>
    <vehicle id="F46.0" depart="0.00" departLane="random" fromTaz="taz_3" toTaz="taz_7">
        <route edges="-E25 E9 E14 E28"/>
    </vehicle>
    <vehicle id="F47.0" depart="0.00" departLane="random" fromTaz="taz_3" toTaz="taz_8">
        <route edges="-E25 E9 E14 -E13 E32"/>
    </vehicle>
    <vehicle id="F48.0" depart="0.00" departLane="random" fromTaz="taz_3" toTaz="taz_9">
        <route edges="-E25 E9 -E3 -E2 E16 E31"/>
    </vehicle>
    <vehicle id="F49.0" depart="0.00" departLane="random" fromTaz="taz_3" toTaz="taz_10">
        <route edges="-E25 -E8 -E7 -E6 E5 E10 E30"/>
    </vehicle>
    <vehicle id="F5.0" depart="0.00" departLane="random" fromTaz="taz_0" toTaz="taz_5">
        <route edges="-E22 E5 E1 E2 E3 E4"/>
    </vehicle>
    <vehicle id="F50.0" depart="0.00" departLane="random" fromTaz="taz_3" toTaz="taz_11">
        <route edges="-E25 E9 E14 -E13 -E12 -E11 E29"/>
    </vehicle>
    <vehicle id="F51.0" depart="0.00" departLane="random" fromTaz="taz_3" toTaz="taz_12">
        <route edges="-E25 E9 -E3 -E2 -E1 -E0"/>
    </vehicle>
    <vehicle id="F52.0" depart="0.00" departLane="random" fromTaz="taz_3" toTaz="taz_13">
        <route edges="-E25 -E8 -E7 -E6 E21"/>
    </vehicle>
    <vehicle id="F53.0" depart="0.00" departLane="random" fromTaz="taz_4" toTaz="taz_0">
        <route edges="-E26 -E8 -E7 -E6 E22"/>
    </vehicle>
    <vehicle id="F54.0" depart="0.00" departLane="random" fromTaz="taz_4" toTaz="taz_1">
        <route edges="-E26 -E8 -E7 E23"/>
    </vehicle>
    <vehicle id="F55.0" depart="0.00" departLane="random" fromTaz="taz_4" toTaz="taz_2">
        <route edges="-E26 -E8 E24"/>
    </vehicle>
    <vehicle id="F56.0" depart="0.00" departLane="random" fromTaz="taz_4" toTaz="taz_3">
        <route edges="-E26 E25"/>
    </vehicle>
    <vehicle id="F57.0" depart="0.00" departLane="random" fromTaz="taz_4" toTaz="taz_5">
        <route edges="-E26 E9 E4"/>
    </vehicle>
    <vehicle id="F58.0" depart="0.00" departLane="random" fromTaz="taz_4" toTaz="taz_6">
        <route edges="-E26 E9 E14 E27"/>
    </vehicle>
    <vehicle id="F59.0" depart="0.00" departLane="random" fromTaz="taz_4" toTaz="taz_7">
        <route edges="-E26 E9 E14 E28"/>
    </vehicle>
    <vehicle id="F6.0" depart="0.00" departLane="random" fromTaz="taz_0" toTaz="taz_6">
        <route edges="-E22 E5 E10 E11 E12 E13 E27"/>
    </vehicle>
    <vehicle id="F60.0" depart="0.00" departLane="random" fromTaz="taz_4" toTaz="taz_8">
        <route edges="-E26 -E8 E17 E18 E32"/>
    </vehicle>
    <vehicle id="F61.0" depart="0.00" departLane="random" fromTaz="taz_4" toTaz="taz_9">
        <route edges="-E26 -E8 -E7 E15 E16 E31"/>
    </vehicle>
    <vehicle id="F62.0" depart="0.00" departLane="random" fromTaz="taz_4" toTaz="taz_10">
        <route edges="-E26 -E8 -E7 -E6 E5 E10 E30"/>
    </vehicle>
    <vehicle id="F63.0" depart="0.00" departLane="random" fromTaz="taz_4" toTaz="taz_11">
        <route edges="-E26 -E8 -E7 E15 E16 -E11 E29"/>
    </vehicle>
    <vehicle id="F64.0" depart="0.00" departLane="random" fromTaz="taz_4" toTaz="taz_12">
        <route edges="-E26 -E8 -E7 E15 -E1 -E0"/>
    </vehicle>
    <vehicle id="F65.0" depart="0.00" departLane="random" fromTaz="taz_4" toTaz="taz_13">
        <route edges="-E26 -E8 -E7 -E6 E21"/>
    </vehicle>
    <vehicle id="F66.0" depart="0.00" departLane="random" fromTaz="taz_5" toTaz="taz_0">
        <route edges="-E4 -E3 -E2 -E1 -E5 E22"/>
    </vehicle>
    <vehicle id="F67.0" depart="0.00" departLane="random" fromTaz="taz_5" toTaz="taz_1">
        <route edges="-E4 -E3 -E2 -E15 E23"/>
    </vehicle>
    <vehicle id="F68.0" depart="0.00" departLane="random" fromTaz="taz_5" toTaz="taz_2">
        <route edges="-E4 -E3 -E17 E24"/>
    </vehicle>
    <vehicle id="F69.0" depart="0.00" departLane="random" fromTaz="taz_5" toTaz="taz_3">
        <route edges="-E4 -E9 E25"/>
    </vehicle>
    <vehicle id="F7.0" depart="0.00" departLane="random" fromTaz="taz_0" toTaz="taz_7">
        <route edges="-E22 E5 E10 E11 E12 E13 E28"/>
    </vehicle>
    <vehicle id="F70.0" depart="0.00" departLane="random" fromTaz="taz_5" toTaz="taz_4">
        <route edges="-E4 -E9 E26"/>
    </vehicle>
    <vehicle id="F71.0" depart="0.00" departLane="random" fromTaz="taz_5" toTaz="taz_6">
        <route edges="-E4 E14 E27"/>
    </vehicle>
    <vehicle id="F72.0" depart="0.00" departLane="random" fromTaz="taz_5" toTaz="taz_7">
        <route edges="-E4 E14 E28"/>
    </vehicle>
    <vehicle id="F73.0" depart="0.00" departLane="random" fromTaz="taz_5" toTaz="taz_8">
        <route edges="-E4 -E3 E18 E32"/>
    </vehicle>
    <vehicle id="F74.0" depart="0.00" departLane="random" fromTaz="taz_5" toTaz="taz_9">
        <route edges="-E4 -E3 -E2 E16 E31"/>
    </vehicle>
    <vehicle id="F75.0" depart="0.00" departLane="random" fromTaz="taz_5" toTaz="taz_10">
        <route edges="-E4 -E3 -E2 -E1 E10 E30"/>
    </vehicle>
    <vehicle id="F76.0" depart="0.00" departLane="random" fromTaz="taz_5" toTaz="taz_11">
        <route edges="-E4 -E3 -E2 E16 -E11 E29"/>
    </vehicle>
    <vehicle id="F77.0" depart="0.00" departLane="random" fromTaz="taz_5" toTaz="taz_12">
        <route edges="-E4 -E3 -E2 -E1 -E0"/>
    </vehicle>
    <vehicle id="F78.0" depart="0.00" departLane="random" fromTaz="taz_5" toTaz="taz_13">
        <route edges="-E4 -E9 -E8 -E7 -E6 E21"/>
    </vehicle>
    <vehicle id="F79.0" depart="0.00" departLane="random" fromTaz="taz_6" toTaz="taz_0">
        <route edges="-E27 -E13 -E12 -E11 -E10 -E5 E22"/>
    </vehicle>
    <vehicle id="F8.0" depart="0.00" departLane="random" fromTaz="taz_0" toTaz="taz_8">
        <route edges="-E22 E5 E10 E11 E12 E32"/>
    </vehicle>
    <vehicle id="F80.0" depart="0.00" departLane="random" fromTaz="taz_6" toTaz="taz_1">
        <route edges="-E27 -E13 -E12 -E16 -E15 E23"/>
    </vehicle>
    <vehicle id="F81.0" depart="0.00" departLane="random" fromTaz="taz_6" toTaz="taz_2">
        <route edges="-E27 -E13 -E18 -E17 E24"/>
    </vehicle>
    <vehicle id="F82.0" depart="0.00" departLane="random" fromTaz="taz_6" toTaz="taz_3">
        <route edges="-E27 -E14 -E9 E25"/>
    </vehicle>
    <vehicle id="F83.0" depart="0.00" departLane="random" fromTaz="taz_6" toTaz="taz_4">
        <route edges="-E27 -E14 -E9 E26"/>
    </vehicle>
    <vehicle id="F84.0" depart="0.00" departLane="random" fromTaz="taz_6" toTaz="taz_5">
        <route edges="-E27 -E14 E4"/>
    </vehicle>
    <vehicle id="F85.0" depart="0.00" departLane="random" fromTaz="taz_6" toTaz="taz_7">
        <route edges="-E27 E28"/>
    </vehicle>
    <vehicle id="F86.0" depart="0.00" departLane="random" fromTaz="taz_6" toTaz="taz_8">
        <route edges="-E27 -E13 E32"/>
    </vehicle>
    <vehicle id="F87.0" depart="0.00" departLane="random" fromTaz="taz_6" toTaz="taz_9">
        <route edges="-E27 -E13 -E12 E31"/>
    </vehicle>
    <vehicle id="F88.0" depart="0.00" departLane="random" fromTaz="taz_6" toTaz="taz_10">
        <route edges="-E27 -E13 -E12 -E11 E30"/>
    </vehicle>
    <vehicle id="F89.0" depart="0.00" departLane="random" fromTaz="taz_6" toTaz="taz_11">
        <route edges="-E27 -E13 -E12 -E11 E29"/>
    </vehicle>
    <vehicle id="F9.0" depart="0.00" departLane="random" fromTaz="taz_0" toTaz="taz_9">
        <route edges="-E22 E5 E10 E11 E31"/>
    </vehicle>
    <vehicle id="F90.0" depart="0.00" departLane="random" fromTaz="taz_6" toTaz="taz_12">
        <route edges="-E27 -E14 -E3 -E2 -E1 -E0"/>
    </vehicle>
    <vehicle id="F91.0" depart="0.00" departLane="random" fromTaz="taz_6" toTaz="taz_13">
        <route edges="-E27 -E14 -E9 -E8 -E7 -E6 E21"/>
    </vehicle>
    <vehicle id="F92.0" depart="0.00" departLane="random" fromTaz="taz_7" toTaz="taz_0">
        <route edges="-E28 -E14 -E3 -E2 -E1 -E5 E22"/>
    </vehicle>
    <vehicle id="F93.0" depart="0.00" departLane="random" fromTaz="taz_7" toTaz="taz_1">
        <route edges="-E28 -E14 -E9 -E8 -E7 E23"/>
    </vehicle>
    <vehicle id="F94.0" depart="0.00" departLane="random" fromTaz="taz_7" toTaz="taz_2">
        <route edges="-E28 -E14 -E9 -E8 E24"/>
    </vehicle>
    <vehicle id="F95.0" depart="0.00" departLane="random" fromTaz="taz_7" toTaz="taz_3">
        <route edges="-E28 -E14 -E9 E25"/>
    </vehicle>
    <vehicle id="F96.0" depart="0.00" departLane="random" fromTaz="taz_7" toTaz="taz_4">
        <route edges="-E28 -E14 -E9 E26"/>
    </vehicle>
    <vehicle id="F97.0" depart="0.00" departLane="random" fromTaz="taz_7" toTaz="taz_5">
        <route edges="-E28 -E14 E4"/>
    </vehicle>
    <vehicle id="F98.0" depart="0.00" departLane="random" fromTaz="taz_7" toTaz="taz_6">
        <route edges="-E28 E27"/>
    </vehicle>
    <vehicle id="F99.0" depart="0.00" departLane="random" fromTaz="taz_7" toTaz="taz_8">
        <route edges="-E28 -E13 E32"/>
    </vehicle>
    <vehicle id="F1.1" depart="0.50" departLane="random" fromTaz="taz_0" toTaz="taz_1">
        <route edges="-E22 E6 E23"/>
    </vehicle>
    <vehicle id="F10.1" depart="0.50" departLane="random" fromTaz="taz_0" toTaz="taz_10">
        <route edges="-E22 E5 E10 E30"/>
    </vehicle>
    <vehicle id="F100.1" depart="0.50" departLane="random" fromTaz="taz_7" toTaz="taz_9">
        <route edges="-E28 -E13 -E12 E31"/>
    </vehicle>
    <vehicle id="F101.1" depart="0.50" departLane="random" fromTaz="taz_7" toTaz="taz_10">
        <route edges="-E28 -E13 -E12 -E11 E30"/>
    </vehicle>
    <vehicle id="F102.1" depart="0.50" departLane="random" fromTaz="taz_7" toTaz="taz_11">
        <route edges="-E28 -E13 -E12 -E11 E29"/>
    </vehicle>
    <vehicle id="F103.1" depart="0.50" departLane="random" fromTaz="taz_7" toTaz="taz_12">
        <route edges="-E28 -E14 -E3 -E2 -E1 -E0"/>
    </vehicle>
    <vehicle id="F104.1" depart="0.50" departLane="random" fromTaz="taz_7" toTaz="taz_13">
        <route edges="-E28 -E14 -E9 -E8 -E7 -E6 E21"/>
    </vehicle>
    <vehicle id="F105.1" depart="0.50" departLane="random" fromTaz="taz_8" toTaz="taz_0">
        <route edges="-E32 -E18 -E17 -E7 -E6 E22"/>
    </vehicle>
    <vehicle id="F106.1" depart="0.50" departLane="random" fromTaz="taz_8" toTaz="taz_1">
        <route edges="-E32 -E18 -E17 -E7 E23"/>
    </vehicle>
    <vehicle id="F107.1" depart="0.50" departLane="random" fromTaz="taz_8" toTaz="taz_2">
        <route edges="-E32 -E18 -E17 E24"/>
    </vehicle>