<?xml version="1.0" encoding="UTF-8"?>

<!-- generated on 2024-07-24 20:38:44 by Eclipse SUMO sumo Version 1.20.0
-->

<configuration xmlns:xsi="http://www.w3.org/2001/XMLSchema-instance" xsi:noNamespaceSchemaLocation="http://sumo.dlr.de/xsd/sumoConfiguration.xsd">

    <input>
        <net-file value="straight.net.xml"/>
        <route-files value="straight.rou.xml"/>
        <additional-files value="straight.taz.add.xml"/>
    </input>

</configuration>
