<?xml version="1.0" encoding="UTF-8"?>
<routes xmlns:xsi="http://www.w3.org/2001/XMLSchema-instance" xsi:noNamespaceSchemaLocation="http://sumo.dlr.de/xsd/routes_file.xsd">
    <flow id="F1" begin="0" end="50" fromTaz="taz_0" toTaz="taz_1" number="600" departLane="random"/>
    
</routes>