<?xml version="1.0" encoding="UTF-8"?>
<routes xmlns:xsi="http://www.w3.org/2001/XMLSchema-instance" xsi:noNamespaceSchemaLocation="http://sumo.dlr.de/xsd/routes_file.xsd">
    <flow id="F1" begin="0" end="5" fromTaz="taz_0" toTaz="taz_1" number="10" departLane="random"/>
    <flow id="F2" begin="0" end="5" fromTaz="taz_0" toTaz="taz_2" number="10" departLane="random"/>
    <flow id="F3" begin="0" end="5" fromTaz="taz_0" toTaz="taz_3" number="10" departLane="random"/>
    <flow id="F4" begin="0" end="5" fromTaz="taz_0" toTaz="taz_4" number="10" departLane="random"/>
    <flow id="F5" begin="0" end="5" fromTaz="taz_0" toTaz="taz_5" number="10" departLane="random"/>
    <flow id="F6" begin="0" end="5" fromTaz="taz_0" toTaz="taz_6" number="10" departLane="random"/>
    <flow id="F7" begin="0" end="5" fromTaz="taz_0" toTaz="taz_7" number="10" departLane="random"/>
    <flow id="F8" begin="0" end="5" fromTaz="taz_0" toTaz="taz_8" number="10" departLane="random"/>
    <flow id="F9" begin="0" end="5" fromTaz="taz_0" toTaz="taz_9" number="10" departLane="random"/>
    <flow id="F10" begin="0" end="5" fromTaz="taz_0" toTaz="taz_10" number="10" departLane="random"/>
    <flow id="F11" begin="0" end="5" fromTaz="taz_0" toTaz="taz_11" number="10" departLane="random"/>
    <flow id="F12" begin="0" end="5" fromTaz="taz_0" toTaz="taz_12" number="10" departLane="random"/>
    <flow id="F13" begin="0" end="5" fromTaz="taz_0" toTaz="taz_13" number="10" departLane="random"/>
    
    <flow id="F14" begin="0" end="5" fromTaz="taz_1" toTaz="taz_0" number="10" departLane="random"/>
    <flow id="F15" begin="0" end="5" fromTaz="taz_1" toTaz="taz_2" number="10" departLane="random"/>
    <flow id="F16" begin="0" end="5" fromTaz="taz_1" toTaz="taz_3" number="10" departLane="random"/>
    <flow id="F17" begin="0" end="5" fromTaz="taz_1" toTaz="taz_4" number="10" departLane="random"/>
    <flow id="F18" begin="0" end="5" fromTaz="taz_1" toTaz="taz_5" number="10" departLane="random"/>
    <flow id="F19" begin="0" end="5" fromTaz="taz_1" toTaz="taz_6" number="10" departLane="random"/>
    <flow id="F20" begin="0" end="5" fromTaz="taz_1" toTaz="taz_7" number="10" departLane="random"/>
    <flow id="F21" begin="0" end="5" fromTaz="taz_1" toTaz="taz_8" number="10" departLane="random"/>
    <flow id="F22" begin="0" end="5" fromTaz="taz_1" toTaz="taz_9" number="10" departLane="random"/>
    <flow id="F23" begin="0" end="5" fromTaz="taz_1" toTaz="taz_10" number="10" departLane="random"/>
    <flow id="F24" begin="0" end="5" fromTaz="taz_1" toTaz="taz_11" number="10" departLane="random"/>
    <flow id="F25" begin="0" end="5" fromTaz="taz_1" toTaz="taz_12" number="10" departLane="random"/>
    <flow id="F26" begin="0" end="5" fromTaz="taz_1" toTaz="taz_13" number="10" departLane="random"/>
    
    <flow id="F27" begin="0" end="5" fromTaz="taz_2" toTaz="taz_0" number="10" departLane="random"/>
    <flow id="F28" begin="0" end="5" fromTaz="taz_2" toTaz="taz_1" number="10" departLane="random"/>
    <flow id="F29" begin="0" end="5" fromTaz="taz_2" toTaz="taz_3" number="10" departLane="random"/>
    <flow id="F30" begin="0" end="5" fromTaz="taz_2" toTaz="taz_4" number="10" departLane="random"/>
    <flow id="F31" begin="0" end="5" fromTaz="taz_2" toTaz="taz_5" number="10" departLane="random"/>
    <flow id="F32" begin="0" end="5" fromTaz="taz_2" toTaz="taz_6" number="10" departLane="random"/>
    <flow id="F33" begin="0" end="5" fromTaz="taz_2" toTaz="taz_7" number="10" departLane="random"/>
    <flow id="F34" begin="0" end="5" fromTaz="taz_2" toTaz="taz_8" number="10" departLane="random"/>
    <flow id="F35" begin="0" end="5" fromTaz="taz_2" toTaz="taz_9" number="10" departLane="random"/>
    <flow id="F36" begin="0" end="5" fromTaz="taz_2" toTaz="taz_10" number="10" departLane="random"/>
    <flow id="F37" begin="0" end="5" fromTaz="taz_2" toTaz="taz_11" number="10" departLane="random"/>
    <flow id="F38" begin="0" end="5" fromTaz="taz_2" toTaz="taz_12" number="10" departLane="random"/>
    <flow id="F39" begin="0" end="5" fromTaz="taz_2" toTaz="taz_13" number="10" departLane="random"/>
    
    <flow id="F40" begin="0" end="5" fromTaz="taz_3" toTaz="taz_0" number="10" departLane="random"/>
    <flow id="F41" begin="0" end="5" fromTaz="taz_3" toTaz="taz_1" number="10" departLane="random"/>
    <flow id="F42" begin="0" end="5" fromTaz="taz_3" toTaz="taz_2" number="10" departLane="random"/>
    <flow id="F43" begin="0" end="5" fromTaz="taz_3" toTaz="taz_4" number="10" departLane="random"/>
    <flow id="F44" begin="0" end="5" fromTaz="taz_3" toTaz="taz_5" number="10" departLane="random"/>
    <flow id="F45" begin="0" end="5" fromTaz="taz_3" toTaz="taz_6" number="10" departLane="random"/>
    <flow id="F46" begin="0" end="5" fromTaz="taz_3" toTaz="taz_7" number="10" departLane="random"/>
    <flow id="F47" begin="0" end="5" fromTaz="taz_3" toTaz="taz_8" number="10" departLane="random"/>
    <flow id="F48" begin="0" end="5" fromTaz="taz_3" toTaz="taz_9" number="10" departLane="random"/>
    <flow id="F49" begin="0" end="5" fromTaz="taz_3" toTaz="taz_10" number="10" departLane="random"/>
    <flow id="F50" begin="0" end="5" fromTaz="taz_3" toTaz="taz_11" number="10" departLane="random"/>
    <flow id="F51" begin="0" end="5" fromTaz="taz_3" toTaz="taz_12" number="10" departLane="random"/>
    <flow id="F52" begin="0" end="5" fromTaz="taz_3" toTaz="taz_13" number="10" departLane="random"/>
    
    <flow id="F53" begin="0" end="5" fromTaz="taz_4" toTaz="taz_0" number="10" departLane="random"/>
    <flow id="F54" begin="0" end="5" fromTaz="taz_4" toTaz="taz_1" number="10" departLane="random"/>
    <flow id="F55" begin="0" end="5" fromTaz="taz_4" toTaz="taz_2" number="10" departLane="random"/>
    <flow id="F56" begin="0" end="5" fromTaz="taz_4" toTaz="taz_3" number="10" departLane="random"/>
    <flow id="F57" begin="0" end="5" fromTaz="taz_4" toTaz="taz_5" number="10" departLane="random"/>
    <flow id="F58" begin="0" end="5" fromTaz="taz_4" toTaz="taz_6" number="10" departLane="random"/>
    <flow id="F59" begin="0" end="5" fromTaz="taz_4" toTaz="taz_7" number="10" departLane="random"/>
    <flow id="F60" begin="0" end="5" fromTaz="taz_4" toTaz="taz_8" number="10" departLane="random"/>
    <flow id="F61" begin="0" end="5" fromTaz="taz_4" toTaz="taz_9" number="10" departLane="random"/>
    <flow id="F62" begin="0" end="5" fromTaz="taz_4" toTaz="taz_10" number="10" departLane="random"/>
    <flow id="F63" begin="0" end="5" fromTaz="taz_4" toTaz="taz_11" number="10" departLane="random"/>
    <flow id="F64" begin="0" end="5" fromTaz="taz_4" toTaz="taz_12" number="10" departLane="random"/>
    <flow id="F65" begin="0" end="5" fromTaz="taz_4" toTaz="taz_13" number="10" departLane="random"/>
    
    <flow id="F66" begin="0" end="5" fromTaz="taz_5" toTaz="taz_0" number="10" departLane="random"/>
    <flow id="F67" begin="0" end="5" fromTaz="taz_5" toTaz="taz_1" number="10" departLane="random"/>
    <flow id="F68" begin="0" end="5" fromTaz="taz_5" toTaz="taz_2" number="10" departLane="random"/>
    <flow id="F69" begin="0" end="5" fromTaz="taz_5" toTaz="taz_3" number="10" departLane="random"/>
    <flow id="F70" begin="0" end="5" fromTaz="taz_5" toTaz="taz_4" number="10" departLane="random"/>
    <flow id="F71" begin="0" end="5" fromTaz="taz_5" toTaz="taz_6" number="10" departLane="random"/>
    <flow id="F72" begin="0" end="5" fromTaz="taz_5" toTaz="taz_7" number="10" departLane="random"/>
    <flow id="F73" begin="0" end="5" fromTaz="taz_5" toTaz="taz_8" number="10" departLane="random"/>
    <flow id="F74" begin="0" end="5" fromTaz="taz_5" toTaz="taz_9" number="10" departLane="random"/>
    <flow id="F75" begin="0" end="5" fromTaz="taz_5" toTaz="taz_10" number="10" departLane="random"/>
    <flow id="F76" begin="0" end="5" fromTaz="taz_5" toTaz="taz_11" number="10" departLane="random"/>
    <flow id="F77" begin="0" end="5" fromTaz="taz_5" toTaz="taz_12" number="10" departLane="random"/>
    <flow id="F78" begin="0" end="5" fromTaz="taz_5" toTaz="taz_13" number="10" departLane="random"/>
    
    <flow id="F79" begin="0" end="5" fromTaz="taz_6" toTaz="taz_0" number="10" departLane="random"/>
    <flow id="F80" begin="0" end="5" fromTaz="taz_6" toTaz="taz_1" number="10" departLane="random"/>
    <flow id="F81" begin="0" end="5" fromTaz="taz_6" toTaz="taz_2" number="10" departLane="random"/>
    <flow id="F82" begin="0" end="5" fromTaz="taz_6" toTaz="taz_3" number="10" departLane="random"/>
    <flow id="F83" begin="0" end="5" fromTaz="taz_6" toTaz="taz_4" number="10" departLane="random"/>
    <flow id="F84" begin="0" end="5" fromTaz="taz_6" toTaz="taz_5" number="10" departLane="random"/>
    <flow id="F85" begin="0" end="5" fromTaz="taz_6" toTaz="taz_7" number="10" departLane="random"/>
    <flow id="F86" begin="0" end="5" fromTaz="taz_6" toTaz="taz_8" number="10" departLane="random"/>
    <flow id="F87" begin="0" end="5" fromTaz="taz_6" toTaz="taz_9" number="10" departLane="random"/>
    <flow id="F88" begin="0" end="5" fromTaz="taz_6" toTaz="taz_10" number="10" departLane="random"/>
    <flow id="F89" begin="0" end="5" fromTaz="taz_6" toTaz="taz_11" number="10" departLane="random"/>
    <flow id="F90" begin="0" end="5" fromTaz="taz_6" toTaz="taz_12" number="10" departLane="random"/>
    <flow id="F91" begin="0" end="5" fromTaz="taz_6" toTaz="taz_13" number="10" departLane="random"/>
    
    <flow id="F92" begin="0" end="5" fromTaz="taz_7" toTaz="taz_0" number="10" departLane="random"/>
    <flow id="F93" begin="0" end="5" fromTaz="taz_7" toTaz="taz_1" number="10" departLane="random"/>
    <flow id="F94" begin="0" end="5" fromTaz="taz_7" toTaz="taz_2" number="10" departLane="random"/>
    <flow id="F95" begin="0" end="5" fromTaz="taz_7" toTaz="taz_3" number="10" departLane="random"/>
    <flow id="F96" begin="0" end="5" fromTaz="taz_7" toTaz="taz_4" number="10" departLane="random"/>
    <flow id="F97" begin="0" end="5" fromTaz="taz_7" toTaz="taz_5" number="10" departLane="random"/>
    <flow id="F98" begin="0" end="5" fromTaz="taz_7" toTaz="taz_6" number="10" departLane="random"/>
    <flow id="F99" begin="0" end="5" fromTaz="taz_7" toTaz="taz_8" number="10" departLane="random"/>
    <flow id="F100" begin="0" end="5" fromTaz="taz_7" toTaz="taz_9" number="10" departLane="random"/>
    <flow id="F101" begin="0" end="5" fromTaz="taz_7" toTaz="taz_10" number="10" departLane="random"/>
    <flow id="F102" begin="0" end="5" fromTaz="taz_7" toTaz="taz_11" number="10" departLane="random"/>
    <flow id="F103" begin="0" end="5" fromTaz="taz_7" toTaz="taz_12" number="10" departLane="random"/>
    <flow id="F104" begin="0" end="5" fromTaz="taz_7" toTaz="taz_13" number="10" departLane="random"/>
    
    <flow id="F105" begin="0" end="5" fromTaz="taz_8" toTaz="taz_0" number="10" departLane="random"/>
    <flow id="F106" begin="0" end="5" fromTaz="taz_8" toTaz="taz_1" number="10" departLane="random"/>
    <flow id="F107" begin="0" end="5" fromTaz="taz_8" toTaz="taz_2" number="10" departLane="random"/>
    <flow id="F108" begin="0" end="5" fromTaz="taz_8" toTaz="taz_3" number="10" departLane="random"/>
    <flow id="F109" begin="0" end="5" fromTaz="taz_8" toTaz="taz_4" number="10" departLane="random"/>
    <flow id="F110" begin="0" end="5" fromTaz="taz_8" toTaz="taz_5" number="10" departLane="random"/>
    <flow id="F111" begin="0" end="5" fromTaz="taz_8" toTaz="taz_6" number="10" departLane="random"/>
    <flow id="F112" begin="0" end="5" fromTaz="taz_8" toTaz="taz_7" number="10" departLane="random"/>
    <flow id="F113" begin="0" end="5" fromTaz="taz_8" toTaz="taz_9" number="10" departLane="random"/>
    <flow id="F114" begin="0" end="5" fromTaz="taz_8" toTaz="taz_10" number="10" departLane="random"/>
    <flow id="F115" begin="0" end="5" fromTaz="taz_8" toTaz="taz_11" number="10" departLane="random"/>
    <flow id="F116" begin="0" end="5" fromTaz="taz_8" toTaz="taz_12" number="10" departLane="random"/>
    <flow id="F117" begin="0" end="5" fromTaz="taz_8" toTaz="taz_13" number="10" departLane="random"/>
    
    <flow id="F118" begin="0" end="5" fromTaz="taz_9" toTaz="taz_0" number="10" departLane="random"/>
    <flow id="F119" begin="0" end="5" fromTaz="taz_9" toTaz="taz_1" number="10" departLane="random"/>
    <flow id="F120" begin="0" end="5" fromTaz="taz_9" toTaz="taz_2" number="10" departLane="random"/>
    <flow id="F121" begin="0" end="5" fromTaz="taz_9" toTaz="taz_3" number="10" departLane="random"/>
    <flow id="F122" begin="0" end="5" fromTaz="taz_9" toTaz="taz_4" number="10" departLane="random"/>
    <flow id="F123" begin="0" end="5" fromTaz="taz_9" toTaz="taz_5" number="10" departLane="random"/>
    <flow id="F124" begin="0" end="5" fromTaz="taz_9" toTaz="taz_6" number="10" departLane="random"/>
    <flow id="F125" begin="0" end="5" fromTaz="taz_9" toTaz="taz_7" number="10" departLane="random"/>
    <flow id="F126" begin="0" end="5" fromTaz="taz_9" toTaz="taz_8" number="10" departLane="random"/>
    <flow id="F127" begin="0" end="5" fromTaz="taz_9" toTaz="taz_10" number="10" departLane="random"/>
    <flow id="F128" begin="0" end="5" fromTaz="taz_9" toTaz="taz_11" number="10" departLane="random"/>
    <flow id="F129" begin="0" end="5" fromTaz="taz_9" toTaz="taz_12" number="10" departLane="random"/>
    <flow id="F130" begin="0" end="5" fromTaz="taz_9" toTaz="taz_13" number="10" departLane="random"/>
    
    <flow id="F131" begin="0" end="5" fromTaz="taz_10" toTaz="taz_0" number="10" departLane="random"/>
    <flow id="F132" begin="0" end="5" fromTaz="taz_10" toTaz="taz_1" number="10" departLane="random"/>
    <flow id="F133" begin="0" end="5" fromTaz="taz_10" toTaz="taz_2" number="10" departLane="random"/>
    <flow id="F134" begin="0" end="5" fromTaz="taz_10" toTaz="taz_3" number="10" departLane="random"/>
    <flow id="F135" begin="0" end="5" fromTaz="taz_10" toTaz="taz_4" number="10" departLane="random"/>
    <flow id="F136" begin="0" end="5" fromTaz="taz_10" toTaz="taz_5" number="10" departLane="random"/>
    <flow id="F137" begin="0" end="5" fromTaz="taz_10" toTaz="taz_6" number="10" departLane="random"/>
    <flow id="F138" begin="0" end="5" fromTaz="taz_10" toTaz="taz_7" number="10" departLane="random"/>
    <flow id="F139" begin="0" end="5" fromTaz="taz_10" toTaz="taz_8" number="10" departLane="random"/>
    <flow id="F140" begin="0" end="5" fromTaz="taz_10" toTaz="taz_9" number="10" departLane="random"/>
    <flow id="F141" begin="0" end="5" fromTaz="taz_10" toTaz="taz_11" number="10" departLane="random"/>
    <flow id="F142" begin="0" end="5" fromTaz="taz_10" toTaz="taz_12" number="10" departLane="random"/>
    <flow id="F143" begin="0" end="5" fromTaz="taz_10" toTaz="taz_13" number="10" departLane="random"/>
    
    <flow id="F144" begin="0" end="5" fromTaz="taz_11" toTaz="taz_0" number="10" departLane="random"/>
    <flow id="F145" begin="0" end="5" fromTaz="taz_11" toTaz="taz_1" number="10" departLane="random"/>
    <flow id="F146" begin="0" end="5" fromTaz="taz_11" toTaz="taz_2" number="10" departLane="random"/>
    <flow id="F147" begin="0" end="5" fromTaz="taz_11" toTaz="taz_3" number="10" departLane="random"/>
    <flow id="F148" begin="0" end="5" fromTaz="taz_11" toTaz="taz_4" number="10" departLane="random"/>
    <flow id="F149" begin="0" end="5" fromTaz="taz_11" toTaz="taz_5" number="10" departLane="random"/>
    <flow id="F150" begin="0" end="5" fromTaz="taz_11" toTaz="taz_6" number="10" departLane="random"/>
    <flow id="F151" begin="0" end="5" fromTaz="taz_11" toTaz="taz_7" number="10" departLane="random"/>
    <flow id="F152" begin="0" end="5" fromTaz="taz_11" toTaz="taz_8" number="10" departLane="random"/>
    <flow id="F153" begin="0" end="5" fromTaz="taz_11" toTaz="taz_9" number="10" departLane="random"/>
    <flow id="F154" begin="0" end="5" fromTaz="taz_11" toTaz="taz_10" number="10" departLane="random"/>
    <flow id="F155" begin="0" end="5" fromTaz="taz_11" toTaz="taz_12" number="10" departLane="random"/>
    <flow id="F156" begin="0" end="5" fromTaz="taz_11" toTaz="taz_13" number="10" departLane="random"/>
    
    <flow id="F157" begin="0" end="5" fromTaz="taz_12" toTaz="taz_0" number="10" departLane="random"/>
    <flow id="F158" begin="0" end="5" fromTaz="taz_12" toTaz="taz_1" number="10" departLane="random"/>
    <flow id="F159" begin="0" end="5" fromTaz="taz_12" toTaz="taz_2" number="10" departLane="random"/>
    <flow id="F160" begin="0" end="5" fromTaz="taz_12" toTaz="taz_3" number="10" departLane="random"/>
    <flow id="F161" begin="0" end="5" fromTaz="taz_12" toTaz="taz_4" number="10" departLane="random"/>
    <flow id="F162" begin="0" end="5" fromTaz="taz_12" toTaz="taz_5" number="10" departLane="random"/>
    <flow id="F163" begin="0" end="5" fromTaz="taz_12" toTaz="taz_6" number="10" departLane="random"/>
    <flow id="F164" begin="0" end="5" fromTaz="taz_12" toTaz="taz_7" number="10" departLane="random"/>
    <flow id="F165" begin="0" end="5" fromTaz="taz_12" toTaz="taz_8" number="10" departLane="random"/>
    <flow id="F166" begin="0" end="5" fromTaz="taz_12" toTaz="taz_9" number="10" departLane="random"/>
    <flow id="F167" begin="0" end="5" fromTaz="taz_12" toTaz="taz_10" number="10" departLane="random"/>
    <flow id="F168" begin="0" end="5" fromTaz="taz_12" toTaz="taz_11" number="10" departLane="random"/>
    <flow id="F169" begin="0" end="5" fromTaz="taz_12" toTaz="taz_13" number="10" departLane="random"/>
    
    <flow id="F170" begin="0" end="5" fromTaz="taz_13" toTaz="taz_0" number="10" departLane="random"/>
    <flow id="F171" begin="0" end="5" fromTaz="taz_13" toTaz="taz_1" number="10" departLane="random"/>
    <flow id="F172" begin="0" end="5" fromTaz="taz_13" toTaz="taz_2" number="10" departLane="random"/>
    <flow id="F173" begin="0" end="5" fromTaz="taz_13" toTaz="taz_3" number="10" departLane="random"/>
    <flow id="F174" begin="0" end="5" fromTaz="taz_13" toTaz="taz_4" number="10" departLane="random"/>
    <flow id="F175" begin="0" end="5" fromTaz="taz_13" toTaz="taz_5" number="10" departLane="random"/>
    <flow id="F176" begin="0" end="5" fromTaz="taz_13" toTaz="taz_6" number="10" departLane="random"/>
    <flow id="F177" begin="0" end="5" fromTaz="taz_13" toTaz="taz_7" number="10" departLane="random"/>
    <flow id="F178" begin="0" end="5" fromTaz="taz_13" toTaz="taz_8" number="10" departLane="random"/>
    <flow id="F179" begin="0" end="5" fromTaz="taz_13" toTaz="taz_9" number="10" departLane="random"/>
    <flow id="F180" begin="0" end="5" fromTaz="taz_13" toTaz="taz_10" number="10" departLane="random"/>
    <flow id="F181" begin="0" end="5" fromTaz="taz_13" toTaz="taz_11" number="10" departLane="random"/>
    <flow id="F182" begin="0" end="5" fromTaz="taz_13" toTaz="taz_12" number="10" departLane="random"/>

</routes>
