<?xml version="1.0" encoding="UTF-8"?>

<!-- generated on 2024-08-02 02:30:16 by Eclipse SUMO sumo Version 1.20.0
-->

<configuration xmlns:xsi="http://www.w3.org/2001/XMLSchema-instance" xsi:noNamespaceSchemaLocation="http://sumo.dlr.de/xsd/sumoConfiguration.xsd">

    <input>
        <net-file value="ql2.complicate.net.xml"/>
        <route-files value="complicate.rou.xml"/>
        <additional-files value="taz_complicate.add.xml"/>
    </input>

</configuration>
