<?xml version="1.0" encoding="UTF-8"?>

<!-- generated on 2024-08-02 01:06:00 by Eclipse SUMO netedit Version 1.20.0
<configuration xmlns:xsi="http://www.w3.org/2001/XMLSchema-instance" xsi:noNamespaceSchemaLocation="http://sumo.dlr.de/xsd/neteditConfiguration.xsd">

    <input>
        <sumo-net-file value="C:\SVN\2024-03-06_YWJEON\04_development\20240719\SUMO-master\QLearning\ql1.net.xml"/>
    </input>

    <output>
        <output-file value="C:\SVN\2024-03-06_YWJEON\04_development\20240719\SUMO-master\QLearning\ql1.net.xml"/>
    </output>

    <processing>
        <geometry.min-radius.fix.railways value="false"/>
        <geometry.max-grade.fix value="false"/>
        <offset.disable-normalization value="true"/>
        <lefthand value="0"/>
    </processing>

    <junctions>
        <no-turnarounds value="true"/>
        <junctions.corner-detail value="5"/>
        <junctions.limit-turn-speed value="5.50"/>
        <rectangular-lane-cut value="0"/>
    </junctions>

    <pedestrian>
        <walkingareas value="0"/>
    </pedestrian>

</configuration>
-->

<net version="1.20" junctionCornerDetail="5" limitTurnSpeed="5.50" xmlns:xsi="http://www.w3.org/2001/XMLSchema-instance" xsi:noNamespaceSchemaLocation="http://sumo.dlr.de/xsd/net_file.xsd">

    <location netOffset="0.00,0.00" convBoundary="-500.00,-629.28,2500.00,583.32" origBoundary="-10000000000.00,-10000000000.00,10000000000.00,10000000000.00" projParameter="!"/>

    <edge id=":B_0" function="internal">
        <lane id=":B_0_0" index="0" speed="6.51" length="9.03" shape="492.00,313.60 491.65,311.15 490.60,309.40 488.85,308.35 486.40,308.00"/>
    </edge>
    <edge id=":B_1" function="internal">
        <lane id=":B_1_0" index="0" speed="13.89" length="27.20" shape="492.00,313.60 492.00,286.40"/>
        <lane id=":B_1_1" index="1" speed="13.89" length="27.20" shape="495.20,313.60 495.20,286.40"/>
        <lane id=":B_1_2" index="2" speed="13.89" length="27.20" shape="498.40,313.60 498.40,286.40"/>
    </edge>
    <edge id=":B_4" function="internal">
        <lane id=":B_4_0" index="0" speed="10.36" length="5.01" shape="498.40,313.60 499.11,308.64"/>
    </edge>
    <edge id=":B_20" function="internal">
        <lane id=":B_20_0" index="0" speed="10.36" length="19.50" shape="499.11,308.64 499.35,306.95 502.20,302.20 506.95,299.35 513.60,298.40"/>
    </edge>
    <edge id=":B_5" function="internal">
        <lane id=":B_5_0" index="0" speed="6.51" length="9.03" shape="513.60,308.00 511.15,308.35 509.40,309.40 508.35,311.15 508.00,313.60"/>
    </edge>
    <edge id=":B_6" function="internal">
        <lane id=":B_6_0" index="0" speed="13.89" length="27.20" shape="513.60,308.00 486.40,308.00"/>
        <lane id=":B_6_1" index="1" speed="13.89" length="27.20" shape="513.60,304.80 486.40,304.80"/>
        <lane id=":B_6_2" index="2" speed="13.89" length="27.20" shape="513.60,301.60 486.40,301.60"/>
    </edge>
    <edge id=":B_9" function="internal">
        <lane id=":B_9_0" index="0" speed="10.36" length="5.01" shape="513.60,301.60 508.64,300.89"/>
    </edge>
    <edge id=":B_21" function="internal">
        <lane id=":B_21_0" index="0" speed="10.36" length="19.50" shape="508.64,300.89 506.95,300.65 502.20,297.80 499.35,293.05 498.40,286.40"/>
    </edge>
    <edge id=":B_10" function="internal">
        <lane id=":B_10_0" index="0" speed="6.51" length="9.03" shape="508.00,286.40 508.35,288.85 509.40,290.60 511.15,291.65 513.60,292.00"/>
    </edge>
    <edge id=":B_11" function="internal">
        <lane id=":B_11_0" index="0" speed="13.89" length="27.20" shape="508.00,286.40 508.00,313.60"/>
        <lane id=":B_11_1" index="1" speed="13.89" length="27.20" shape="504.80,286.40 504.80,313.60"/>
        <lane id=":B_11_2" index="2" speed="13.89" length="27.20" shape="501.60,286.40 501.60,313.60"/>
    </edge>
    <edge id=":B_14" function="internal">
        <lane id=":B_14_0" index="0" speed="10.36" length="5.01" shape="501.60,286.40 500.89,291.36"/>
    </edge>
    <edge id=":B_22" function="internal">
        <lane id=":B_22_0" index="0" speed="10.36" length="19.50" shape="500.89,291.36 500.65,293.05 497.80,297.80 493.05,300.65 486.40,301.60"/>
    </edge>
    <edge id=":B_15" function="internal">
        <lane id=":B_15_0" index="0" speed="6.51" length="9.03" shape="486.40,292.00 488.85,291.65 490.60,290.60 491.65,288.85 492.00,286.40"/>
    </edge>
    <edge id=":B_16" function="internal">
        <lane id=":B_16_0" index="0" speed="13.89" length="27.20" shape="486.40,292.00 513.60,292.00"/>
        <lane id=":B_16_1" index="1" speed="13.89" length="27.20" shape="486.40,295.20 513.60,295.20"/>
        <lane id=":B_16_2" index="2" speed="13.89" length="27.20" shape="486.40,298.40 513.60,298.40"/>
    </edge>
    <edge id=":B_19" function="internal">
        <lane id=":B_19_0" index="0" speed="10.36" length="5.01" shape="486.40,298.40 491.36,299.11"/>
    </edge>
    <edge id=":B_23" function="internal">
        <lane id=":B_23_0" index="0" speed="10.36" length="19.50" shape="491.36,299.11 493.05,299.35 497.80,302.20 500.65,306.95 501.60,313.60"/>
    </edge>
    <edge id=":C_0" function="internal">
        <lane id=":C_0_0" index="0" speed="6.51" length="9.03" shape="492.00,23.20 491.65,20.75 490.60,19.00 488.85,17.95 486.40,17.60"/>
        <lane id=":C_0_1" index="1" speed="7.33" length="11.73" shape="492.00,23.20 491.65,19.35 490.60,16.60 488.85,14.95 486.40,14.40"/>
        <lane id=":C_0_2" index="2" speed="8.10" length="14.57" shape="492.00,23.20 491.65,17.95 490.60,14.20 488.85,11.95 486.40,11.20"/>
    </edge>
    <edge id=":C_3" function="internal">
        <lane id=":C_3_0" index="0" speed="13.89" length="46.40" shape="492.00,23.20 492.00,-23.20"/>
        <lane id=":C_3_1" index="1" speed="13.89" length="46.40" shape="495.20,23.20 495.20,-23.20"/>
        <lane id=":C_3_2" index="2" speed="13.89" length="46.40" shape="498.40,23.20 498.40,-23.20"/>
    </edge>
    <edge id=":C_6" function="internal">
        <lane id=":C_6_0" index="0" speed="11.89" length="8.06" shape="498.40,23.20 499.10,15.17"/>
    </edge>
    <edge id=":C_27" function="internal">
        <lane id=":C_27_0" index="0" speed="11.89" length="24.56" shape="499.10,15.17 499.35,12.35 502.20,4.60 506.95,-0.05 513.60,-1.60"/>
    </edge>
    <edge id=":C_7" function="internal">
        <lane id=":C_7_0" index="0" speed="8.83" length="17.50" shape="513.60,8.00 511.15,8.95 509.40,11.80 508.35,16.55 508.00,23.20"/>
    </edge>
    <edge id=":C_8" function="internal">
        <lane id=":C_8_0" index="0" speed="16.95" length="27.97" shape="513.60,8.00 505.29,9.50 500.00,12.80 494.71,16.10 486.40,17.60"/>
        <lane id=":C_8_1" index="1" speed="16.95" length="27.97" shape="513.60,8.00 505.42,9.00 500.00,11.20 494.58,13.40 486.40,14.40"/>
        <lane id=":C_8_2" index="2" speed="16.95" length="27.97" shape="513.60,4.80 505.42,5.80 500.00,8.00 494.58,10.20 486.40,11.20"/>
        <lane id=":C_8_3" index="3" speed="16.95" length="27.97" shape="513.60,4.80 505.50,5.30 500.00,6.40 494.50,7.50 486.40,8.00"/>
        <lane id=":C_8_4" index="4" speed="16.95" length="27.97" shape="513.60,1.60 505.50,2.10 500.00,3.20 494.50,4.30 486.40,4.80"/>
        <lane id=":C_8_5" index="5" speed="16.95" length="27.97" shape="513.60,1.60 486.40,1.60"/>
    </edge>
    <edge id=":C_14" function="internal">
        <lane id=":C_14_0" index="0" speed="11.89" length="6.36" shape="513.60,1.60 507.40,0.16"/>
    </edge>
    <edge id=":C_28" function="internal">
        <lane id=":C_28_0" index="0" speed="11.89" length="26.26" shape="507.40,0.16 506.95,0.05 502.20,-4.60 499.35,-12.35 498.40,-23.20"/>
    </edge>
    <edge id=":C_15" function="internal">
        <lane id=":C_15_0" index="0" speed="8.83" length="17.50" shape="508.00,-23.20 508.35,-16.55 509.40,-11.80 511.15,-8.95 513.60,-8.00"/>
    </edge>
    <edge id=":C_16" function="internal">
        <lane id=":C_16_0" index="0" speed="13.89" length="46.40" shape="508.00,-23.20 508.00,23.20"/>
        <lane id=":C_16_1" index="1" speed="13.89" length="46.40" shape="504.80,-23.20 504.80,23.20"/>
        <lane id=":C_16_2" index="2" speed="13.89" length="46.40" shape="501.60,-23.20 501.60,23.20"/>
    </edge>
    <edge id=":C_19" function="internal">
        <lane id=":C_19_0" index="0" speed="12.38" length="9.09" shape="501.60,-23.20 500.90,-14.14"/>
        <lane id=":C_19_1" index="1" speed="11.89" length="8.06" shape="501.60,-23.20 500.90,-15.17"/>
    </edge>
    <edge id=":C_29" function="internal">
        <lane id=":C_29_0" index="0" speed="12.38" length="26.36" shape="500.90,-14.14 500.65,-10.95 497.80,-2.20 493.05,3.05 486.40,4.80"/>
    </edge>
    <edge id=":C_30" function="internal">
        <lane id=":C_30_0" index="0" speed="11.89" length="24.56" shape="500.90,-15.17 500.65,-12.35 497.80,-4.60 493.05,0.05 486.40,1.60"/>
    </edge>
    <edge id=":C_21" function="internal">
        <lane id=":C_21_0" index="0" speed="6.51" length="9.03" shape="486.40,-17.60 488.85,-17.95 490.60,-19.00 491.65,-20.75 492.00,-23.20"/>
    </edge>
    <edge id=":C_22" function="internal">
        <lane id=":C_22_0" index="0" speed="16.95" length="28.18" shape="486.40,-14.40 494.58,-13.40 500.00,-11.20 505.42,-9.00 513.60,-8.00"/>
        <lane id=":C_22_1" index="1" speed="16.95" length="28.18" shape="486.40,-11.20 494.58,-10.20 500.00,-8.00 505.42,-5.80 513.60,-4.80"/>
        <lane id=":C_22_2" index="2" speed="16.95" length="28.18" shape="486.40,-8.00 494.58,-7.00 500.00,-4.80 505.42,-2.60 513.60,-1.60"/>
    </edge>
    <edge id=":C_25" function="internal">
        <lane id=":C_25_0" index="0" speed="12.76" length="11.29" shape="486.40,-4.80 494.45,-3.05 496.70,-0.99"/>
        <lane id=":C_25_1" index="1" speed="11.89" length="3.19" shape="486.40,-1.60 489.50,-0.88"/>
    </edge>
    <edge id=":C_31" function="internal">
        <lane id=":C_31_0" index="0" speed="12.76" length="26.44" shape="496.70,-0.99 500.20,2.20 503.65,10.95 504.80,23.20"/>
    </edge>
    <edge id=":C_32" function="internal">
        <lane id=":C_32_0" index="0" speed="11.89" length="29.44" shape="489.50,-0.88 493.05,-0.05 497.80,4.60 500.65,12.35 501.60,23.20"/>
    </edge>
    <edge id=":D_0" function="internal">
        <lane id=":D_0_0" index="0" speed="6.51" length="9.03" shape="492.00,-286.40 491.65,-288.85 490.60,-290.60 488.85,-291.65 486.40,-292.00"/>
    </edge>
    <edge id=":D_1" function="internal">
        <lane id=":D_1_0" index="0" speed="13.89" length="27.20" shape="492.00,-286.40 492.00,-313.60"/>
        <lane id=":D_1_1" index="1" speed="13.89" length="27.20" shape="495.20,-286.40 495.20,-313.60"/>
        <lane id=":D_1_2" index="2" speed="13.89" length="27.20" shape="498.40,-286.40 498.40,-313.60"/>
    </edge>
    <edge id=":D_4" function="internal">
        <lane id=":D_4_0" index="0" speed="10.36" length="5.01" shape="498.40,-286.40 499.11,-291.36"/>
    </edge>
    <edge id=":D_20" function="internal">
        <lane id=":D_20_0" index="0" speed="10.36" length="19.50" shape="499.11,-291.36 499.35,-293.05 502.20,-297.80 506.95,-300.65 513.60,-301.60"/>
    </edge>
    <edge id=":D_5" function="internal">
        <lane id=":D_5_0" index="0" speed="6.51" length="9.03" shape="513.60,-292.00 511.15,-291.65 509.40,-290.60 508.35,-288.85 508.00,-286.40"/>
    </edge>
    <edge id=":D_6" function="internal">
        <lane id=":D_6_0" index="0" speed="13.89" length="27.20" shape="513.60,-292.00 486.40,-292.00"/>
        <lane id=":D_6_1" index="1" speed="13.89" length="27.20" shape="513.60,-295.20 486.40,-295.20"/>
        <lane id=":D_6_2" index="2" speed="13.89" length="27.20" shape="513.60,-298.40 486.40,-298.40"/>
    </edge>
    <edge id=":D_9" function="internal">
        <lane id=":D_9_0" index="0" speed="10.36" length="5.01" shape="513.60,-298.40 508.64,-299.11"/>
    </edge>
    <edge id=":D_21" function="internal">
        <lane id=":D_21_0" index="0" speed="10.36" length="19.50" shape="508.64,-299.11 506.95,-299.35 502.20,-302.20 499.35,-306.95 498.40,-313.60"/>
    </edge>
    <edge id=":D_10" function="internal">
        <lane id=":D_10_0" index="0" speed="6.51" length="9.03" shape="508.00,-313.60 508.35,-311.15 509.40,-309.40 511.15,-308.35 513.60,-308.00"/>
    </edge>
    <edge id=":D_11" function="internal">
        <lane id=":D_11_0" index="0" speed="13.89" length="27.20" shape="508.00,-313.60 508.00,-286.40"/>
        <lane id=":D_11_1" index="1" speed="13.89" length="27.20" shape="504.80,-313.60 504.80,-286.40"/>
        <lane id=":D_11_2" index="2" speed="13.89" length="27.20" shape="501.60,-313.60 501.60,-286.40"/>
    </edge>
    <edge id=":D_14" function="internal">
        <lane id=":D_14_0" index="0" speed="10.36" length="5.01" shape="501.60,-313.60 500.89,-308.64"/>
    </edge>
    <edge id=":D_22" function="internal">
        <lane id=":D_22_0" index="0" speed="10.36" length="19.50" shape="500.89,-308.64 500.65,-306.95 497.80,-302.20 493.05,-299.35 486.40,-298.40"/>
    </edge>
    <edge id=":D_15" function="internal">
        <lane id=":D_15_0" index="0" speed="6.51" length="9.03" shape="486.40,-308.00 488.85,-308.35 490.60,-309.40 491.65,-311.15 492.00,-313.60"/>
    </edge>
    <edge id=":D_16" function="internal">
        <lane id=":D_16_0" index="0" speed="13.89" length="27.20" shape="486.40,-308.00 513.60,-308.00"/>
        <lane id=":D_16_1" index="1" speed="13.89" length="27.20" shape="486.40,-304.80 513.60,-304.80"/>
        <lane id=":D_16_2" index="2" speed="13.89" length="27.20" shape="486.40,-301.60 513.60,-301.60"/>
    </edge>
    <edge id=":D_19" function="internal">
        <lane id=":D_19_0" index="0" speed="10.36" length="5.01" shape="486.40,-301.60 491.36,-300.89"/>
    </edge>
    <edge id=":D_23" function="internal">
        <lane id=":D_23_0" index="0" speed="10.36" length="19.50" shape="491.36,-300.89 493.05,-300.65 497.80,-297.80 500.65,-293.05 501.60,-286.40"/>
    </edge>
    <edge id=":E_0" function="internal">
        <lane id=":E_0_0" index="0" speed="6.51" length="9.03" shape="992.00,313.60 991.65,311.15 990.60,309.40 988.85,308.35 986.40,308.00"/>
    </edge>
    <edge id=":E_1" function="internal">
        <lane id=":E_1_0" index="0" speed="13.89" length="27.20" shape="992.00,313.60 992.00,286.40"/>
        <lane id=":E_1_1" index="1" speed="13.89" length="27.20" shape="995.20,313.60 995.20,286.40"/>
        <lane id=":E_1_2" index="2" speed="13.89" length="27.20" shape="998.40,313.60 998.40,286.40"/>
    </edge>
    <edge id=":E_4" function="internal">
        <lane id=":E_4_0" index="0" speed="10.36" length="5.01" shape="998.40,313.60 999.11,308.64"/>
    </edge>
    <edge id=":E_20" function="internal">
        <lane id=":E_20_0" index="0" speed="10.36" length="19.50" shape="999.11,308.64 999.35,306.95 1002.20,302.20 1006.95,299.35 1013.60,298.40"/>
    </edge>
    <edge id=":E_5" function="internal">
        <lane id=":E_5_0" index="0" speed="6.51" length="9.03" shape="1013.60,308.00 1011.15,308.35 1009.40,309.40 1008.35,311.15 1008.00,313.60"/>
    </edge>
    <edge id=":E_6" function="internal">
        <lane id=":E_6_0" index="0" speed="13.89" length="27.20" shape="1013.60,308.00 986.40,308.00"/>
        <lane id=":E_6_1" index="1" speed="13.89" length="27.20" shape="1013.60,304.80 986.40,304.80"/>
        <lane id=":E_6_2" index="2" speed="13.89" length="27.20" shape="1013.60,301.60 986.40,301.60"/>
    </edge>
    <edge id=":E_9" function="internal">
        <lane id=":E_9_0" index="0" speed="10.36" length="5.01" shape="1013.60,301.60 1008.64,300.89"/>
    </edge>
    <edge id=":E_21" function="internal">
        <lane id=":E_21_0" index="0" speed="10.36" length="19.50" shape="1008.64,300.89 1006.95,300.65 1002.20,297.80 999.35,293.05 998.40,286.40"/>
    </edge>
    <edge id=":E_10" function="internal">
        <lane id=":E_10_0" index="0" speed="6.51" length="9.03" shape="1008.00,286.40 1008.35,288.85 1009.40,290.60 1011.15,291.65 1013.60,292.00"/>
    </edge>
    <edge id=":E_11" function="internal">
        <lane id=":E_11_0" index="0" speed="13.89" length="27.20" shape="1008.00,286.40 1008.00,313.60"/>
        <lane id=":E_11_1" index="1" speed="13.89" length="27.20" shape="1004.80,286.40 1004.80,313.60"/>
        <lane id=":E_11_2" index="2" speed="13.89" length="27.20" shape="1001.60,286.40 1001.60,313.60"/>
    </edge>
    <edge id=":E_14" function="internal">
        <lane id=":E_14_0" index="0" speed="10.36" length="5.01" shape="1001.60,286.40 1000.89,291.36"/>
    </edge>
    <edge id=":E_22" function="internal">
        <lane id=":E_22_0" index="0" speed="10.36" length="19.50" shape="1000.89,291.36 1000.65,293.05 997.80,297.80 993.05,300.65 986.40,301.60"/>
    </edge>
    <edge id=":E_15" function="internal">
        <lane id=":E_15_0" index="0" speed="6.51" length="9.03" shape="986.40,292.00 988.85,291.65 990.60,290.60 991.65,288.85 992.00,286.40"/>
    </edge>
    <edge id=":E_16" function="internal">
        <lane id=":E_16_0" index="0" speed="13.89" length="27.20" shape="986.40,292.00 1013.60,292.00"/>
        <lane id=":E_16_1" index="1" speed="13.89" length="27.20" shape="986.40,295.20 1013.60,295.20"/>
        <lane id=":E_16_2" index="2" speed="13.89" length="27.20" shape="986.40,298.40 1013.60,298.40"/>
    </edge>
    <edge id=":E_19" function="internal">
        <lane id=":E_19_0" index="0" speed="10.36" length="5.01" shape="986.40,298.40 991.36,299.11"/>
    </edge>
    <edge id=":E_23" function="internal">
        <lane id=":E_23_0" index="0" speed="10.36" length="19.50" shape="991.36,299.11 993.05,299.35 997.80,302.20 1000.65,306.95 1001.60,313.60"/>
    </edge>
    <edge id=":F_0" function="internal">
        <lane id=":F_0_0" index="0" speed="6.51" length="9.03" shape="992.00,13.60 991.65,11.15 990.60,9.40 988.85,8.35 986.40,8.00"/>
    </edge>
    <edge id=":F_1" function="internal">
        <lane id=":F_1_0" index="0" speed="13.89" length="27.20" shape="992.00,13.60 992.00,-13.60"/>
        <lane id=":F_1_1" index="1" speed="13.89" length="27.20" shape="995.20,13.60 995.20,-13.60"/>
        <lane id=":F_1_2" index="2" speed="13.89" length="27.20" shape="998.40,13.60 998.40,-13.60"/>
    </edge>
    <edge id=":F_4" function="internal">
        <lane id=":F_4_0" index="0" speed="10.36" length="5.01" shape="998.40,13.60 999.11,8.64"/>
    </edge>
    <edge id=":F_20" function="internal">
        <lane id=":F_20_0" index="0" speed="10.36" length="19.50" shape="999.11,8.64 999.35,6.95 1002.20,2.20 1006.95,-0.65 1013.60,-1.60"/>
    </edge>
    <edge id=":F_5" function="internal">
        <lane id=":F_5_0" index="0" speed="6.51" length="9.03" shape="1013.60,8.00 1011.15,8.35 1009.40,9.40 1008.35,11.15 1008.00,13.60"/>
    </edge>
    <edge id=":F_6" function="internal">
        <lane id=":F_6_0" index="0" speed="13.89" length="27.20" shape="1013.60,8.00 986.40,8.00"/>
        <lane id=":F_6_1" index="1" speed="13.89" length="27.20" shape="1013.60,4.80 986.40,4.80"/>
        <lane id=":F_6_2" index="2" speed="13.89" length="27.20" shape="1013.60,1.60 986.40,1.60"/>
    </edge>
    <edge id=":F_9" function="internal">
        <lane id=":F_9_0" index="0" speed="10.36" length="5.01" shape="1013.60,1.60 1008.64,0.89"/>
    </edge>
    <edge id=":F_21" function="internal">
        <lane id=":F_21_0" index="0" speed="10.36" length="19.50" shape="1008.64,0.89 1006.95,0.65 1002.20,-2.20 999.35,-6.95 998.40,-13.60"/>
    </edge>
    <edge id=":F_10" function="internal">
        <lane id=":F_10_0" index="0" speed="6.51" length="9.03" shape="1008.00,-13.60 1008.35,-11.15 1009.40,-9.40 1011.15,-8.35 1013.60,-8.00"/>
    </edge>
    <edge id=":F_11" function="internal">
        <lane id=":F_11_0" index="0" speed="13.89" length="27.20" shape="1008.00,-13.60 1008.00,13.60"/>
        <lane id=":F_11_1" index="1" speed="13.89" length="27.20" shape="1004.80,-13.60 1004.80,13.60"/>
        <lane id=":F_11_2" index="2" speed="13.89" length="27.20" shape="1001.60,-13.60 1001.60,13.60"/>
    </edge>
    <edge id=":F_14" function="internal">
        <lane id=":F_14_0" index="0" speed="10.36" length="5.01" shape="1001.60,-13.60 1000.89,-8.64"/>
    </edge>
    <edge id=":F_22" function="internal">
        <lane id=":F_22_0" index="0" speed="10.36" length="19.50" shape="1000.89,-8.64 1000.65,-6.95 997.80,-2.20 993.05,0.65 986.40,1.60"/>
    </edge>
    <edge id=":F_15" function="internal">
        <lane id=":F_15_0" index="0" speed="6.51" length="9.03" shape="986.40,-8.00 988.85,-8.35 990.60,-9.40 991.65,-11.15 992.00,-13.60"/>
    </edge>
    <edge id=":F_16" function="internal">
        <lane id=":F_16_0" index="0" speed="13.89" length="27.20" shape="986.40,-8.00 1013.60,-8.00"/>
        <lane id=":F_16_1" index="1" speed="13.89" length="27.20" shape="986.40,-4.80 1013.60,-4.80"/>
        <lane id=":F_16_2" index="2" speed="13.89" length="27.20" shape="986.40,-1.60 1013.60,-1.60"/>
    </edge>
    <edge id=":F_19" function="internal">
        <lane id=":F_19_0" index="0" speed="10.36" length="5.01" shape="986.40,-1.60 991.36,-0.89"/>
    </edge>
    <edge id=":F_23" function="internal">
        <lane id=":F_23_0" index="0" speed="10.36" length="19.50" shape="991.36,-0.89 993.05,-0.65 997.80,2.20 1000.65,6.95 1001.60,13.60"/>
    </edge>
    <edge id=":G_0" function="internal">
        <lane id=":G_0_0" index="0" speed="6.51" length="9.03" shape="992.00,-286.40 991.65,-288.85 990.60,-290.60 988.85,-291.65 986.40,-292.00"/>
    </edge>
    <edge id=":G_1" function="internal">
        <lane id=":G_1_0" index="0" speed="13.89" length="27.20" shape="992.00,-286.40 992.00,-313.60"/>
        <lane id=":G_1_1" index="1" speed="13.89" length="27.20" shape="995.20,-286.40 995.20,-313.60"/>
        <lane id=":G_1_2" index="2" speed="13.89" length="27.20" shape="998.40,-286.40 998.40,-313.60"/>
    </edge>
    <edge id=":G_4" function="internal">
        <lane id=":G_4_0" index="0" speed="10.36" length="5.01" shape="998.40,-286.40 999.11,-291.36"/>
    </edge>
    <edge id=":G_20" function="internal">
        <lane id=":G_20_0" index="0" speed="10.36" length="19.50" shape="999.11,-291.36 999.35,-293.05 1002.20,-297.80 1006.95,-300.65 1013.60,-301.60"/>
    </edge>
    <edge id=":G_5" function="internal">
        <lane id=":G_5_0" index="0" speed="6.51" length="9.03" shape="1013.60,-292.00 1011.15,-291.65 1009.40,-290.60 1008.35,-288.85 1008.00,-286.40"/>
    </edge>
    <edge id=":G_6" function="internal">
        <lane id=":G_6_0" index="0" speed="13.89" length="27.20" shape="1013.60,-292.00 986.40,-292.00"/>
        <lane id=":G_6_1" index="1" speed="13.89" length="27.20" shape="1013.60,-295.20 986.40,-295.20"/>
        <lane id=":G_6_2" index="2" speed="13.89" length="27.20" shape="1013.60,-298.40 986.40,-298.40"/>
    </edge>
    <edge id=":G_9" function="internal">
        <lane id=":G_9_0" index="0" speed="10.36" length="5.01" shape="1013.60,-298.40 1008.64,-299.11"/>
    </edge>
    <edge id=":G_21" function="internal">
        <lane id=":G_21_0" index="0" speed="10.36" length="19.50" shape="1008.64,-299.11 1006.95,-299.35 1002.20,-302.20 999.35,-306.95 998.40,-313.60"/>
    </edge>
    <edge id=":G_10" function="internal">
        <lane id=":G_10_0" index="0" speed="6.51" length="9.03" shape="1008.00,-313.60 1008.35,-311.15 1009.40,-309.40 1011.15,-308.35 1013.60,-308.00"/>
    </edge>
    <edge id=":G_11" function="internal">
        <lane id=":G_11_0" index="0" speed="13.89" length="27.20" shape="1008.00,-313.60 1008.00,-286.40"/>
        <lane id=":G_11_1" index="1" speed="13.89" length="27.20" shape="1004.80,-313.60 1004.80,-286.40"/>
        <lane id=":G_11_2" index="2" speed="13.89" length="27.20" shape="1001.60,-313.60 1001.60,-286.40"/>
    </edge>
    <edge id=":G_14" function="internal">
        <lane id=":G_14_0" index="0" speed="10.36" length="5.01" shape="1001.60,-313.60 1000.89,-308.64"/>
    </edge>
    <edge id=":G_22" function="internal">
        <lane id=":G_22_0" index="0" speed="10.36" length="19.50" shape="1000.89,-308.64 1000.65,-306.95 997.80,-302.20 993.05,-299.35 986.40,-298.40"/>
    </edge>
    <edge id=":G_15" function="internal">
        <lane id=":G_15_0" index="0" speed="6.51" length="9.03" shape="986.40,-308.00 988.85,-308.35 990.60,-309.40 991.65,-311.15 992.00,-313.60"/>
    </edge>
    <edge id=":G_16" function="internal">
        <lane id=":G_16_0" index="0" speed="13.89" length="27.20" shape="986.40,-308.00 1013.60,-308.00"/>
        <lane id=":G_16_1" index="1" speed="13.89" length="27.20" shape="986.40,-304.80 1013.60,-304.80"/>
        <lane id=":G_16_2" index="2" speed="13.89" length="27.20" shape="986.40,-301.60 1013.60,-301.60"/>
    </edge>
    <edge id=":G_19" function="internal">
        <lane id=":G_19_0" index="0" speed="10.36" length="5.01" shape="986.40,-301.60 991.36,-300.89"/>
    </edge>
    <edge id=":G_23" function="internal">
        <lane id=":G_23_0" index="0" speed="10.36" length="19.50" shape="991.36,-300.89 993.05,-300.65 997.80,-297.80 1000.65,-293.05 1001.60,-286.40"/>
    </edge>
    <edge id=":H_0" function="internal">
        <lane id=":H_0_0" index="0" speed="6.51" length="9.03" shape="1492.00,313.60 1491.65,311.15 1490.60,309.40 1488.85,308.35 1486.40,308.00"/>
    </edge>
    <edge id=":H_1" function="internal">
        <lane id=":H_1_0" index="0" speed="13.89" length="27.20" shape="1492.00,313.60 1492.00,286.40"/>
        <lane id=":H_1_1" index="1" speed="13.89" length="27.20" shape="1495.20,313.60 1495.20,286.40"/>
        <lane id=":H_1_2" index="2" speed="13.89" length="27.20" shape="1498.40,313.60 1498.40,286.40"/>
    </edge>
    <edge id=":H_4" function="internal">
        <lane id=":H_4_0" index="0" speed="10.36" length="5.01" shape="1498.40,313.60 1499.11,308.64"/>
    </edge>
    <edge id=":H_20" function="internal">
        <lane id=":H_20_0" index="0" speed="10.36" length="19.50" shape="1499.11,308.64 1499.35,306.95 1502.20,302.20 1506.95,299.35 1513.60,298.40"/>
    </edge>
    <edge id=":H_5" function="internal">
        <lane id=":H_5_0" index="0" speed="6.51" length="9.03" shape="1513.60,308.00 1511.15,308.35 1509.40,309.40 1508.35,311.15 1508.00,313.60"/>
    </edge>
    <edge id=":H_6" function="internal">
        <lane id=":H_6_0" index="0" speed="13.89" length="27.20" shape="1513.60,308.00 1486.40,308.00"/>
        <lane id=":H_6_1" index="1" speed="13.89" length="27.20" shape="1513.60,304.80 1486.40,304.80"/>
        <lane id=":H_6_2" index="2" speed="13.89" length="27.20" shape="1513.60,301.60 1486.40,301.60"/>
    </edge>
    <edge id=":H_9" function="internal">
        <lane id=":H_9_0" index="0" speed="10.36" length="5.01" shape="1513.60,301.60 1508.64,300.89"/>
    </edge>
    <edge id=":H_21" function="internal">
        <lane id=":H_21_0" index="0" speed="10.36" length="19.50" shape="1508.64,300.89 1506.95,300.65 1502.20,297.80 1499.35,293.05 1498.40,286.40"/>
    </edge>
    <edge id=":H_10" function="internal">
        <lane id=":H_10_0" index="0" speed="6.51" length="9.03" shape="1508.00,286.40 1508.35,288.85 1509.40,290.60 1511.15,291.65 1513.60,292.00"/>
    </edge>
    <edge id=":H_11" function="internal">
        <lane id=":H_11_0" index="0" speed="13.89" length="27.20" shape="1508.00,286.40 1508.00,313.60"/>
        <lane id=":H_11_1" index="1" speed="13.89" length="27.20" shape="1504.80,286.40 1504.80,313.60"/>
        <lane id=":H_11_2" index="2" speed="13.89" length="27.20" shape="1501.60,286.40 1501.60,313.60"/>
    </edge>
    <edge id=":H_14" function="internal">
        <lane id=":H_14_0" index="0" speed="10.36" length="5.01" shape="1501.60,286.40 1500.89,291.36"/>
    </edge>
    <edge id=":H_22" function="internal">
        <lane id=":H_22_0" index="0" speed="10.36" length="19.50" shape="1500.89,291.36 1500.65,293.05 1497.80,297.80 1493.05,300.65 1486.40,301.60"/>
    </edge>
    <edge id=":H_15" function="internal">
        <lane id=":H_15_0" index="0" speed="6.51" length="9.03" shape="1486.40,292.00 1488.85,291.65 1490.60,290.60 1491.65,288.85 1492.00,286.40"/>
    </edge>
    <edge id=":H_16" function="internal">
        <lane id=":H_16_0" index="0" speed="13.89" length="27.20" shape="1486.40,292.00 1513.60,292.00"/>
        <lane id=":H_16_1" index="1" speed="13.89" length="27.20" shape="1486.40,295.20 1513.60,295.20"/>
        <lane id=":H_16_2" index="2" speed="13.89" length="27.20" shape="1486.40,298.40 1513.60,298.40"/>
    </edge>
    <edge id=":H_19" function="internal">
        <lane id=":H_19_0" index="0" speed="10.36" length="5.01" shape="1486.40,298.40 1491.36,299.11"/>
    </edge>
    <edge id=":H_23" function="internal">
        <lane id=":H_23_0" index="0" speed="10.36" length="19.50" shape="1491.36,299.11 1493.05,299.35 1497.80,302.20 1500.65,306.95 1501.60,313.60"/>
    </edge>
    <edge id=":I_0" function="internal">
        <lane id=":I_0_0" index="0" speed="6.51" length="9.03" shape="1492.00,13.60 1491.65,11.15 1490.60,9.40 1488.85,8.35 1486.40,8.00"/>
    </edge>
    <edge id=":I_1" function="internal">
        <lane id=":I_1_0" index="0" speed="13.89" length="27.20" shape="1492.00,13.60 1492.00,-13.60"/>
        <lane id=":I_1_1" index="1" speed="13.89" length="27.20" shape="1495.20,13.60 1495.20,-13.60"/>
        <lane id=":I_1_2" index="2" speed="13.89" length="27.20" shape="1498.40,13.60 1498.40,-13.60"/>
    </edge>
    <edge id=":I_4" function="internal">
        <lane id=":I_4_0" index="0" speed="10.36" length="5.01" shape="1498.40,13.60 1499.11,8.64"/>
    </edge>
    <edge id=":I_20" function="internal">