<?xml version="1.0" encoding="UTF-8"?>

<!-- generated on 2024-07-25 20:23:44 by Eclipse SUMO netedit Version 1.20.0
-->

<additional xmlns:xsi="http://www.w3.org/2001/XMLSchema-instance" xsi:noNamespaceSchemaLocation="http://sumo.dlr.de/xsd/additional_file.xsd">
    <!-- TAZs -->
    <taz id="taz_0" shape="-587.97,61.46 -589.44,-96.59 -270.40,-95.12 -270.40,66.61 -589.44,62.93 -587.97,61.46" color="blue">
        <tazSource id="-E0" weight="1.00"/>
        <tazSink id="-E0" weight="1.00"/>
        <tazSource id="E0" weight="1.00"/>
        <tazSink id="E0" weight="1.00"/>
    </taz>
    <taz id="taz_1" shape="2483.52,22.02 2483.52,-24.62 2526.46,-23.38 2524.88,19.73 2483.34,22.20 2483.52,22.02" color="blue">
        <tazSource id="-E4" weight="1.00"/>
        <tazSink id="-E4" weight="1.00"/>
        <tazSource id="E4" weight="1.00"/>
        <tazSink id="E4" weight="1.00"/>
    </taz>
</additional>
